Version 4
SHEET 1 2280 680
WIRE 912 -240 864 -240
WIRE 1056 -240 912 -240
WIRE 1168 -240 1136 -240
WIRE 1200 -240 1168 -240
WIRE 1328 -240 1280 -240
WIRE 1584 -240 1392 -240
WIRE 1696 -240 1584 -240
WIRE 1760 -240 1696 -240
WIRE 912 -224 912 -240
WIRE 1584 -208 1584 -240
WIRE 1696 -208 1696 -240
WIRE 688 -176 688 -192
WIRE 1168 -176 1168 -240
WIRE 1328 -176 1328 -240
WIRE 1056 -96 1056 -240
WIRE 1104 -96 1056 -96
WIRE 1584 -96 1584 -128
WIRE 1584 -96 1392 -96
WIRE 1584 -80 1584 -96
WIRE 688 -48 688 -96
WIRE 1056 -16 1056 -96
WIRE 1104 -16 1056 -16
WIRE 1504 -16 1392 -16
WIRE 944 64 864 64
WIRE 1040 64 1024 64
WIRE 1104 64 1040 64
WIRE 1424 64 1392 64
WIRE 1504 80 1504 64
WIRE 1040 96 1040 64
WIRE 912 304 912 -160
WIRE 1040 304 1040 176
WIRE 1040 304 912 304
WIRE 1248 304 1248 144
WIRE 1248 304 1040 304
WIRE 1504 304 1504 144
WIRE 1504 304 1248 304
WIRE 1584 304 1584 0
WIRE 1584 304 1504 304
WIRE 1696 304 1696 -144
WIRE 1696 304 1584 304
WIRE 1584 336 1584 304
FLAG 688 -48 0
FLAG 688 -192 Vin
FLAG 1584 336 0
FLAG 864 -240 Vin
FLAG 1760 -240 Vo
FLAG 1424 64 Iadj
FLAG 864 64 Vin
FLAG 704 96 Iadj
FLAG 704 256 0
FLAG 1584 -96 FB
SYMBOL voltage 688 -192 R0
WINDOW 123 0 0 Left 0
WINDOW 39 24 124 Left 2
SYMATTR InstName V1
SYMATTR Value 5
SYMBOL ind 1184 -224 R270
WINDOW 0 32 56 VTop 2
WINDOW 3 5 56 VBottom 2
SYMATTR InstName L1
SYMATTR Value 30m
SYMBOL cap 1680 -208 R0
SYMATTR InstName C2
SYMATTR Value 10µ
SYMBOL schottky 1328 -224 R270
WINDOW 0 32 32 VTop 2
WINDOW 3 0 32 VBottom 2
SYMATTR InstName D2
SYMBOL cap 896 -224 R0
SYMATTR InstName C1
SYMATTR Value 10µ
SYMBOL res 1040 -224 R270
WINDOW 0 32 56 VTop 2
WINDOW 3 0 56 VBottom 2
SYMATTR InstName Ri
SYMATTR Value 0.1
SYMBOL res 1024 80 R0
SYMATTR InstName R1
SYMATTR Value 20k
SYMBOL PowerProducts\\LT1618 1248 -16 R0
SYMATTR InstName U2
SYMBOL res 1568 -224 R0
SYMATTR InstName R4
SYMATTR Value 83k
SYMBOL res 1568 -96 R0
SYMATTR InstName R5
SYMATTR Value 14.7k
SYMBOL res 1488 -32 R0
SYMATTR InstName R6
SYMATTR Value 2k
SYMBOL cap 1488 80 R0
SYMATTR InstName C6
SYMATTR Value 10n
SYMBOL res 928 80 R270
WINDOW 0 32 56 VTop 2
WINDOW 3 0 56 VBottom 2
SYMATTR InstName R3
SYMATTR Value 10k
SYMBOL voltage 704 160 R0
WINDOW 123 0 0 Left 0
WINDOW 39 0 0 Left 0
SYMATTR InstName V4
SYMATTR Value {A}
SYMBOL res 688 80 R0
SYMATTR InstName R7
SYMATTR Value 5k
TEXT 656 -8 Left 2 !.tran 3m
TEXT 440 312 Left 2 !.step param A list 1.601 1.6488 1.6505
