Version 4
SHEET 1 2280 680
WIRE 912 -240 864 -240
WIRE 1056 -240 912 -240
WIRE 1168 -240 1136 -240
WIRE 1200 -240 1168 -240
WIRE 1328 -240 1280 -240
WIRE 1424 -240 1328 -240
WIRE 1584 -240 1488 -240
WIRE 1696 -240 1584 -240
WIRE 1792 -240 1696 -240
WIRE 1840 -240 1792 -240
WIRE 1792 -224 1792 -240
WIRE 1584 -208 1584 -240
WIRE 1696 -208 1696 -240
WIRE 432 -176 432 -192
WIRE 1168 -176 1168 -240
WIRE 1328 -176 1328 -240
WIRE 1056 -96 1056 -240
WIRE 1104 -96 1056 -96
WIRE 1584 -96 1584 -128
WIRE 1584 -96 1392 -96
WIRE 1584 -80 1584 -96
WIRE 432 -48 432 -96
WIRE 912 -16 912 -240
WIRE 1104 -16 912 -16
WIRE 1504 -16 1392 -16
WIRE 912 64 912 -16
WIRE 1104 64 912 64
WIRE 1424 64 1392 64
WIRE 1504 80 1504 64
WIRE 912 96 912 64
WIRE 304 160 304 128
WIRE 912 304 912 160
WIRE 1248 304 1248 144
WIRE 1248 304 912 304
WIRE 1504 304 1504 144
WIRE 1504 304 1248 304
WIRE 1584 304 1584 0
WIRE 1584 304 1504 304
WIRE 1696 304 1696 -144
WIRE 1696 304 1584 304
WIRE 1792 304 1792 -144
WIRE 1792 304 1696 304
WIRE 1584 336 1584 304
FLAG 432 -48 0
FLAG 432 -192 Vin
IOPIN 432 -192 Out
FLAG 1584 336 0
FLAG 864 -240 Vin
IOPIN 864 -240 In
FLAG 1840 -240 Vo
IOPIN 1840 -240 Out
FLAG 1584 -96 FB
FLAG 304 128 Iadj
IOPIN 304 128 Out
FLAG 1424 64 Iadj
FLAG 304 240 0
SYMBOL voltage 432 -192 R0
WINDOW 123 0 0 Left 0
WINDOW 39 24 124 Left 2
SYMATTR InstName V1
SYMATTR Value 5
SYMBOL ind 1184 -224 R270
WINDOW 0 32 56 VTop 2
WINDOW 3 5 56 VBottom 2
SYMATTR InstName L1
SYMATTR Value 10µ
SYMATTR SpiceLine Ipk=1.15 Rser=0.182 Rpar=0 Cpar=0 mfg="Sumida" pn="CD43-100"
SYMBOL cap 1680 -208 R0
SYMATTR InstName C2
SYMATTR Value 47µ
SYMBOL schottky 1424 -224 R270
WINDOW 0 32 32 VTop 2
WINDOW 3 0 32 VBottom 2
SYMATTR InstName D2
SYMATTR Value MBR0520L
SYMBOL cap 896 96 R0
SYMATTR InstName C1
SYMATTR Value 10µ
SYMBOL res 1040 -224 R270
WINDOW 0 32 56 VTop 2
WINDOW 3 0 56 VBottom 2
SYMATTR InstName Ri
SYMATTR Value .165
SYMBOL PowerProducts\\LT1618 1248 -16 R0
SYMATTR InstName U2
SYMBOL res 1568 -224 R0
SYMATTR InstName R4
SYMATTR Value 83k
SYMBOL res 1568 -96 R0
SYMATTR InstName R5
SYMATTR Value 14.7k
SYMBOL res 1488 -32 R0
SYMATTR InstName R6
SYMATTR Value 2k
SYMBOL cap 1488 80 R0
SYMATTR InstName C6
SYMATTR Value 10n
SYMBOL res 1776 -240 R0
SYMATTR InstName Rload
SYMATTR Value 100
SYMBOL bv 304 144 R0
SYMATTR InstName B1
SYMATTR Value V=(1.6-(1000*time))*(u(time+.1m)-u(time-1.6m))
TEXT 656 -8 Left 2 !.tran 3m
TEXT 392 32 Left 2 !;step param R list 83k 69.1k 55.1k
